10
XYZ file generated by Avogadro.
C     -1.80160    2.23050   -0.02590
C     -0.27180    2.20030    0.00670
H     -2.16620    2.67360   -0.95630
O      0.03870    0.79700   -0.02020
H      0.11090    2.64360    0.92990
C     -1.08000    0.04930    0.00620
O     -2.16770    0.84140    0.02270
H     -2.20980    2.75320    0.84310
H      0.15620    2.69220   -0.87070
O     -1.10420   -1.16300    0.01350
