242

Li      8.401667594909668      9.230968475341797     10.427469253540039
Li     10.222960472106934     10.914786338806152     12.425441741943359
Li      7.747140884399414      5.885630607604980    -23.894241333007812
Li      8.992952346801758     14.645874977111816      6.137757778167725
Li     -2.742927074432373     13.904559135437012     12.747035980224609
Li    -27.580806732177734    -22.755311965942383     40.247497558593750
Li     15.849899291992188     -1.526736259460449     16.145513534545898
C      16.831621170043945      5.705195903778076     12.131117820739746
C      16.567981719970703      5.454127311706543     13.419386863708496
C      12.310477256774902      5.012913227081299     11.915317535400391
O      12.817259788513184      5.285614013671875     13.114802360534668
O      13.190014839172363      4.958239078521729     10.906959533691406
O      11.072371482849121      4.817780494689941     11.730550765991211
H      17.157386779785156      4.918256282806396     11.450204849243164
H      16.764959335327148      6.713027000427246     11.710999488830566
H      16.278717041015625      6.240465641021729     14.118998527526855
H      16.675413131713867      4.443274497985840     13.831560134887695
C      16.671195983886719     12.379672050476074     20.915855407714844
C      15.669841766357422     13.485219955444336     21.252222061157227
C      15.485143661499023     12.928995132446289     19.041864395141602
O      14.845900535583496     13.554779052734375     20.046442031860352
O      16.623270034790039     12.335302352905273     19.452194213867188
O      15.068266868591309     12.892520904541016     17.893106460571289
H      16.361833572387695     11.398413658142090     21.291580200195312
H      17.700576782226562     12.596124649047852     21.214014053344727
H      16.137571334838867     14.465981483459473     21.395828247070312
H      15.016395568847656     13.237523078918457     22.091650009155273
C       9.919848442077637     20.086580276489258     15.687598228454590
C       9.676494598388672     20.346687316894531     14.199703216552734
C       7.745833873748779     19.502695083618164     15.137200355529785
O       8.348590850830078     19.780109405517578     13.969543457031250
O       8.566727638244629     19.794860839843750     16.197704315185547
O       6.627418518066406     19.050239562988281     15.264335632324219
H      10.300664901733398     20.942691802978516     16.252374649047852
H      10.532633781433105     19.203992843627930     15.876303672790527
H      10.376624107360840     19.822862625122070     13.536005020141602
H       9.621368408203125     21.411481857299805     13.949892997741699
C      12.915193557739258     15.858654022216797      9.152056694030762
C      12.338685989379883     15.922096252441406     10.569568634033203
C      11.925264358520508     13.834063529968262      9.648575782775879
O      11.835315704345703     14.564581871032715     10.794092178344727
O      12.482599258422852     14.558052062988281      8.646880149841309
O      11.549497604370117     12.688747406005859      9.532398223876953
H      14.011960029602051     15.885558128356934      9.117016792297363
H      12.532340049743652     16.637769699096680      8.487067222595215
H      11.512160301208496     16.632068634033203     10.682662963867188
H      13.088775634765625     16.134908676147461     11.343363761901855
C      13.299301147460938      8.001366615295410      9.507905960083008
C      13.105783462524414      9.121222496032715     10.532504081726074
C      11.086401939392090      8.532938957214355      9.659486770629883
O      11.654996871948242      9.157726287841797     10.706281661987305
O      11.982666969299316      7.949737548828125      8.853466033935547
O       9.877572059631348      8.503460884094238      9.448625564575195
H      13.461636543273926      7.007987976074219      9.960782051086426
H      14.045529365539551      8.234408378601074      8.742061614990234
H      13.428183555603027     10.111860275268555     10.174891471862793
H      13.554438591003418      8.918800354003906     11.508785247802734
C       8.578974723815918     12.886160850524902     12.505846977233887
C       8.239068984985352     12.055545806884766     11.264949798583984
C       7.118256092071533      9.735413551330566     13.208230018615723
O       8.578173637390137     10.701244354248047     11.446204185485840
O       9.917145729064941     12.715988159179688     12.871636390686035
O       7.529534816741943      8.664068222045898     13.312438964843750
H       7.887286663055420     12.579482078552246     13.326310157775879
H       8.321925163269043     13.949858665466309     12.267773628234863
H       8.806367874145508     12.491685867309570     10.410636901855469
H       7.157432556152344     12.188248634338379     11.035015106201172
C      17.030809402465820     16.605476379394531     18.272111892700195
C      17.285078048706055     17.357858657836914     16.972064971923828
C      16.931455612182617     15.160351753234863     16.501285552978516
O      16.875511169433594     16.391290664672852     15.950457572937012
O      17.124223709106445     15.209630966186523     17.836446762084961
O      16.806207656860352     14.128270149230957     15.858609199523926
H      16.022331237792969     16.755451202392578     18.680643081665039
H      17.816677093505859     16.786373138427734     19.013242721557617
H      18.354642868041992     17.573429107666016     16.829420089721680
H      16.670885086059570     18.257709503173828     16.859842300415039
C      17.644449234008789     18.940082550048828      7.941116333007812
C      17.372583389282227     19.913864135742188      6.802392959594727
C      15.694652557373047     18.360939025878906      6.894890785217285
O      16.315235137939453     19.238756179809570      6.059940814971924
O      16.368549346923828     18.236507415771484      8.067060470581055
O      14.676830291748047     17.756731033325195      6.616457462310791
H      17.877275466918945     19.427341461181641      8.891945838928223
H      18.421508789062500     18.219511032104492      7.668618679046631
H      18.234338760375977     20.063682556152344      6.141510009765625
H      16.978012084960938     20.883344650268555      7.143052101135254
C      10.585145950317383     18.986217498779297      8.629392623901367
C      11.015494346618652     19.050506591796875      7.153259754180908
C       9.870406150817871     17.108297348022461      7.525860786437988
O      10.471787452697754     17.824337005615234      6.566777229309082
O       9.920981407165527     17.682857513427734      8.726655960083008
O       9.343838691711426     16.015743255615234      7.328876018524170
H       9.835108757019043     19.749620437622070      8.879455566406250
H      11.406297683715820     19.001472473144531      9.360271453857422
H      12.100676536560059     19.035072326660156      7.008317470550537
H      10.570544242858887     19.889860153198242      6.609927654266357
C      18.233541488647461     12.453757286071777     10.589522361755371
C      18.490184783935547     11.285786628723145     11.543039321899414
C      16.840057373046875     10.703450202941895     10.049201011657715
O      17.679079055786133     10.204921722412109     10.988672256469727
O      17.070127487182617     12.021651268005371      9.827155113220215
O      16.002300262451172     10.052488327026367      9.462058067321777
H      19.049562454223633     12.621999740600586      9.879234313964844
H      17.985589981079102     13.372672080993652     11.121772766113281
H      18.137008666992188     11.499522209167480     12.554858207702637
H      19.533304214477539     10.952521324157715     11.573858261108398
C      12.420175552368164      7.144115447998047     18.574897766113281
C      10.719382286071777      8.616484642028809     19.340167999267578
C      13.972199440002441      5.667226314544678     17.601102828979492
O      13.195653915405273      7.448982238769531     19.467082977294922
O      12.670760154724121      6.291870594024658     17.562950134277344
O      11.170104026794434      7.596930027008057     18.413394927978516
H       9.630753517150879      8.463294029235840     19.377038955688477
H      11.192280769348145      8.472999572753906     20.322237014770508
H      10.985164642333984      9.603501319885254     18.930837631225586
H      14.020584106445312      4.967669963836670     18.448431015014648
H      14.039011955261230      5.139050006866455     16.645818710327148
H      14.771298408508301      6.419095993041992     17.683658599853516
C      19.567676544189453      8.507720947265625     17.886713027954102
C      18.542942047119141      6.572364330291748     17.018154144287109
C      20.904716491699219     10.233362197875977     18.732372283935547
O      18.818651199340820      8.532990455627441     18.852319717407227
O      20.563091278076172      9.384311676025391     17.619504928588867
O      19.530246734619141      7.617593288421631     16.872493743896484
H      18.888042449951172      5.842089653015137     17.761880874633789
H      17.585113525390625      7.003137588500977     17.310750961303711
H      18.490884780883789      6.103058815002441     16.033735275268555
H      21.646760940551758     10.941410064697266     18.342708587646484
H      20.019109725952148     10.762226104736328     19.109857559204102
H      21.344339370727539      9.610450744628906     19.522722244262695
C      16.298797607421875      9.433436393737793     16.085380554199219
C      17.241970062255859      9.236334800720215     13.939068794250488
C      15.460475921630859      9.445707321166992     18.295978546142578
O      16.486715316772461     10.649199485778809     16.096538543701172
O      15.762802124023438      8.715774536132812     17.074134826660156
O      16.615924835205078      8.603381156921387     15.085114479064941
H      16.555603027343750      9.975617408752441     13.514396667480469
H      18.193698883056641      9.707220077514648     14.223532676696777
H      17.424354553222656      8.422742843627930     13.234230041503906
H      16.387819290161133      9.852487564086914     18.713811874389648
H      14.754329681396484     10.254818916320801     18.079942703247070
H      15.000690460205078      8.703351974487305     18.954330444335938
C      19.568511962890625     14.220839500427246     14.447284698486328
C      19.785774230957031     12.123946189880371     15.490658760070801
C      19.270307540893555     16.396387100219727     13.621455192565918
O      19.176326751708984     13.721599578857422     13.409562110900879
O      19.690849304199219     15.536858558654785     14.708662986755371
O      19.952272415161133     13.559979438781738     15.562661170959473
H      20.324827194213867     11.714116096496582     14.631099700927734
H      20.191450119018555     11.727379798889160     16.426483154296875
H      18.718078613281250     11.880078315734863     15.416183471679688
H      19.466159820556641     17.414178848266602     13.969408035278320
H      19.822517395019531     16.165508270263672     12.701977729797363
H      18.202777862548828     16.249046325683594     13.443245887756348
C      18.409645080566406     16.133832931518555      9.887130737304688
C      16.208318710327148     16.058862686157227     10.805650711059570
C      20.683986663818359     16.342306137084961      9.227142333984375
O      18.160493850708008     15.337507247924805      8.992079734802246
O      19.608337402343750     16.711174011230469     10.131354331970215
O      17.559133529663086     16.579847335815430     10.831446647644043
H      16.161701202392578     15.164503097534180     10.172148704528809
H      15.951726913452148     15.806316375732422     11.841100692749023
H      15.541762351989746     16.838918685913086     10.414618492126465
H      20.480915069580078     16.750541687011719      8.234588623046875
H      21.585515975952148     16.793066024780273      9.652245521545410
H      20.787681579589844     15.251156806945801      9.187630653381348
C       9.940172195434570     14.562234878540039     17.275779724121094
C       8.010303497314453     15.937460899353027     17.159463882446289
C      11.965623855590820     13.336630821228027     17.247287750244141
O       9.798357009887695     14.348495483398438     18.491619110107422
O      10.952411651611328     14.100920677185059     16.541610717773438
O       9.129967689514160     15.268071174621582     16.498561859130859
H       7.495842456817627     16.502059936523438     16.379394531250000
H       7.327725410461426     15.189771652221680     17.577804565429688
H       8.381133079528809     16.616718292236328     17.940010070800781
H      12.436549186706543     13.960011482238770     18.005058288574219
H      11.512149810791016     12.450996398925781     17.707910537719727
H      12.685489654541016     13.038235664367676     16.483491897583008
C      19.860332489013672      7.553933143615723      9.789184570312500
C      19.223526000976562      9.017339706420898      8.055038452148438
C      20.456851959228516      5.917651653289795     11.386600494384766
O      20.863376617431641      8.217125892639160     10.048686027526855
O      19.527717590332031      6.402988433837891     10.376854896545410
O      18.923480987548828      7.865914344787598      8.892724990844727
H      19.488643646240234      9.889420509338379      8.668392181396484
H      20.043155670166016      8.752367973327637      7.378761291503906
H      18.315771102905273      9.193540573120117      7.474639415740967
H      21.476434707641602      5.867804527282715     10.975020408630371
H      20.453794479370117      6.553304195404053     12.277304649353027
H      20.093088150024414      4.912365436553955     11.618908882141113
C      21.180036544799805     12.882237434387207      7.013906478881836
C      22.964225769042969     11.460801124572754      7.754768848419189
C      19.679128646850586     14.512310028076172      6.087854862213135
O      20.290910720825195     12.179663658142090      7.450675487518311
O      21.035831451416016     14.033899307250977      6.323409080505371
O      22.517812728881836     12.681698799133301      7.097397804260254
H      22.292432785034180     11.226865768432617      8.585050582885742
H      22.989921569824219     10.647184371948242      7.027304649353027
H      23.965347290039062     11.679547309875488      8.132669448852539
H      19.172536849975586     13.844807624816895      5.379198074340820
H      19.141399383544922     14.543663978576660      7.034547328948975
H      19.800500869750977     15.518803596496582      5.673620700836182
C      10.967924118041992     16.526306152343750     14.268501281738281
C       8.981118202209473     16.783250808715820     13.045613288879395
C      13.014376640319824     16.608346939086914     15.424470901489258
O      11.387269973754883     15.671299934387207     13.499661445617676
O      11.638013839721680     17.014831542968750     15.320447921752930
O       9.777595520019531     17.123176574707031     14.205493927001953
H       8.846180915832520     15.700341224670410     12.989200592041016
H       8.023505210876465     17.285867691040039     13.207435607910156
H       9.486882209777832     17.179426193237305     12.156056404113770
H      13.610937118530273     17.241394042968750     14.754185676574707
H      13.308378219604492     16.768821716308594     16.469594955444336
H      13.132800102233887     15.551079750061035     15.150997161865234
C      11.280796051025391      9.751544952392578     15.021138191223145
C       9.475366592407227     11.162938117980957     15.637179374694824
C      13.064767837524414      8.265586853027344     14.614141464233398
O      10.942982673645020      9.748124122619629     13.839625358581543
O      12.303335189819336      9.066313743591309     15.545175552368164
O      10.675600051879883     10.420155525207520     16.010179519653320
H       9.223456382751465     11.748553276062012     16.533535003662109
H       9.670300483703613     11.824716567993164     14.771057128906250
H       8.663887023925781     10.453186035156250     15.418170928955078
H      13.481981277465820      8.923107147216797     13.840873718261719
H      13.861736297607422      7.836227893829346     15.223939895629883
H      12.460767745971680      7.466772556304932     14.163537979125977
C      21.313344955444336     19.676626205444336     21.190870285034180
C      21.845296859741211     20.799453735351562     20.628326416015625
C      20.692455291748047     18.398014068603516     19.160011291503906
O      21.858142852783203     21.199108123779297     19.374025344848633
O      20.601049423217773     18.635646820068359     20.598230361938477
O      19.931894302368164     17.464605331420898     18.845811843872070
H      21.397792816162109     19.526365280151367     22.267007827758789
H      22.328348159790039     21.457672119140625     21.382417678833008
P      14.459408760070801     12.670606613159180     13.140699386596680
F      14.440506935119629     12.497987747192383     14.817049980163574
F      12.807211875915527     12.708689689636230     13.190427780151367
F      14.394261360168457     11.039371490478516     13.015456199645996
F      14.488996505737305     14.285692214965820     13.326217651367188
F      14.438441276550293     12.822024345397949     11.525227546691895
F      16.081308364868164     12.606150627136230     13.169363975524902
