242

Li      8.401667594909668      9.230968475341797     10.427469253540039
Li     10.222960472106934     10.914786338806152     12.425441741943359
Li      7.747140884399414      5.885630607604980      4.105758666992188
Li      8.992952346801758      0.645874977111816      6.137757778167725
Li     11.257072925567627     13.904559135437012     12.747035980224609
Li      0.419193267822266      5.244688034057617     12.247497558593750
Li      1.849899291992188     12.473263740539551      2.145513534545898
C       1.744988118841293     -7.234229120295099     -1.343678301953254
C       1.481348668768051     -7.485297712366632     -0.055409258984504
C      -2.776155794427750     -7.926511796991877     -1.559478587292610
O      -2.269373262689468     -7.653811010401300     -0.359993762158332
O      -1.896618212030289     -7.981185945551446     -2.567836589001594
O      -4.014261568353531     -8.121644529383234     -1.744245356701789
H       2.070753728582504     -8.021168741266781     -2.024591273449836
H       1.678326284124497     -6.226398023645929     -1.763796633862434
H       1.192083989812973     -6.698959383051446      0.644202404833855
H       1.588780080511215     -8.496150526087336      0.356764012194695
C       1.584562932684067     -0.559752973597101      7.441059285021844
C       0.583208715154770      0.545794931371161      7.777425938464226
C       0.398510610296372     -0.010429891626886      5.567068272448601
O      -0.240732515619156      0.615354028661200      6.571645909167351
O       1.536636983587387     -0.604122671167902      5.977398091174187
O      -0.018366182611343     -0.046904119532160      4.418310337878289
H       1.275200521185043     -1.541011365931086      7.816784077502312
H       2.613943731023911     -0.343300375025324      7.739217930651726
H       1.050938283636215      1.526556459386297      7.921032124377312
H      -0.070237482354996      0.298098054845282      8.616853886462273
C      -5.166784609125015      7.147155252416082      2.212802105761590
C      -5.410138452813980      7.407262292821356      0.724907093859734
C      -7.340799177453873      6.563270059544989      1.662404232836785
O      -6.738042200372574      6.840684381444403      0.494747334338250
O      -6.519905412958023      6.855435815770575      2.722908192492547
O      -8.459214533136246      6.110814538915106      1.789539509631219
H      -4.785968149469253      8.003266778905340      2.777578526354851
H      -4.553999269769546      6.264567819554754      2.401507550097527
H      -4.710008943841812      6.883437601048895      0.061208897448601
H      -5.465264642999527      8.472056833226629      0.475096875048699
C      -2.171439493463394      2.919228998143621     -4.322739428662238
C      -2.747947061822769      2.982671228368231     -2.905227488659797
C      -3.161368692682144      0.894638505895086     -3.826220339917121
O      -3.251317346856949      1.625156846959539     -2.680703944348274
O      -2.604033792779800      1.618627038915106     -4.827915972851692
O      -3.537135446832535     -0.250677618067316     -3.942397898816047
H      -1.074673021600601      2.946133104283758     -4.357779330395637
H      -2.554293001459000      3.698344675023504     -4.987728900097785
H      -3.574472749994156      3.692643609960028     -2.792133158825813
H      -1.997857416437027      3.195483652074286     -2.131432360791145
C      -1.787331903741714     -4.938058408777765     -3.966890162609992
C      -1.980849588678238     -3.818202528040461     -2.942292040966926
C      -4.000231111810562     -4.406486066858820     -3.815309352063117
O      -3.431636179254410     -3.781698736231379     -2.768514460705696
O      -3.103966081903335     -4.989687475245050     -4.621330088757453
O      -5.209060991571304     -4.435964139978937     -4.026170558117805
H      -1.624996507928726     -5.931437047998957     -3.514014071606574
H      -1.041103685663101     -4.705016645472101     -4.732734507702766
H      -1.658449495599625     -2.827564748804621     -3.299904650830207
H      -1.532194460199234     -4.020624670069269     -1.966010874890266
C      -6.507658327386734     -0.053264173548273     -0.968949145459113
C      -6.847564066217300     -0.883879217188410     -2.209846324109016
C      -7.968376959131119     -3.204011472742609     -0.266566104077278
O      -6.508459413812515     -2.238180669825129     -2.028591937207160
O      -5.169487322137710     -0.223436864893488     -0.603159732006965
O      -7.557098234460708     -4.275356802027277     -0.162357157849250
H      -7.199346388147232     -0.359942945520929     -0.148485964917121
H      -6.764707887933609      1.010433641393133     -1.207022494458137
H      -6.280265177057144     -0.447739156763605     -3.064159220837531
H      -7.929200495050308     -0.751176389734797     -2.439781016491828
C       1.944176351263168      3.666051355321356      4.797315770007195
C       2.198444997503403      4.418433633763739      3.497268849230828
C       1.844822560979965      2.220926729161688      3.026489430285515
O       1.788878118230942      3.451865640599676      2.475661450244012
O       2.037590657903793      2.270205942113348      4.361650639391961
O       1.719574605657700      1.188845125157782      2.383813076830926
H       0.935698186590317      3.816026178319403      5.205846958972039
H       2.730044042303208      3.846948114354559      5.538446598864617
H       3.268009816839340      4.634004083592840      3.354623967028679
H       1.584252034856918      5.318284479100653      3.385046177722039
C       2.557816182806137      6.000657525975653     -5.533679789685189
C       2.285950338079575      6.974439111669012     -6.672403163098274
C       0.608019506170395      5.421514001805731     -6.579905337475715
O       1.228602086736801      6.299331155736395     -7.414855307721076
O       1.281916295721176      5.297082391698309     -5.407735652111946
O      -0.409802759454605      4.817306009252020     -6.858338660382209
H       2.790642415716293      6.487916437108465     -4.582850283764778
H       3.334875737859848      5.280086008031317     -5.806177443646369
H       3.147705709173325      7.124257532079168     -7.333286112927375
H       1.891379033758286      7.943919626195379     -6.331744021557746
C      -4.501487100885269      6.046792474706121     -4.845403498791633
C      -4.071138704584000      6.111081567723700     -6.321536368512092
C      -5.216226900384781      4.168872323949286     -5.948935336255012
O      -4.614845598504898      4.884911981542059     -6.908018893383918
O      -5.165651644037125      4.743432489354559     -4.748140162609992
O      -5.742794359491226      3.076318231542059     -6.145920104168830
H      -5.251524294183609      6.810195413548895     -4.595340556286750
H      -3.680335367486832      6.062047449071356     -4.114524668835578
H      -2.985956514642593      6.095647302586981     -6.466478652142463
H      -4.516088808343765      6.950435129125067     -6.864868468426643
C       3.146908437444809     -0.485667738001398     -2.885273760937629
C       3.403551732732895     -1.653638395350031     -1.931756800793586
C       1.753424321844223     -2.235974821131281     -3.425595111035285
O       2.592446004583481     -2.734503301661066     -2.486123866223274
O       1.983494435979965     -0.917773756067804     -3.647641009472785
O       0.915667211248520     -2.886936697046808     -4.012738055371223
H       3.962929403020981     -0.317425283472589     -3.595561808728156
H       2.898956929876450      0.433247056920477     -2.353023356579719
H       3.050375615789536     -1.439902814905695     -0.919937914990363
H       4.446671163274887     -1.986903699915461     -1.900937861584602
C      -2.666457498834488     -5.795309576075129      5.100101643420281
C      -4.367250765130875     -4.322940382044367      5.865371876574578
C      -1.114433611200210     -7.272198709528498      4.126306706286492
O      -1.890979135797378     -5.490442785303644      5.992286854601922
O      -2.415872896478531     -6.647554430048517      4.088154011584344
O      -3.916529024408218     -5.342494997065119      4.938598805285515
H      -5.455879534051773     -4.476130994837336      5.902242832995476
H      -3.894352281854507     -4.466425451319269      6.847440892077508
H      -4.101468408868667     -3.335923704187922      5.456041508532586
H      -1.066048944757339     -7.971755060236505      4.973634892321648
H      -1.047621095941421     -7.800375017206720      3.171022587634148
H      -0.315334642694351     -6.520329031031183      4.208862477160515
C       4.481043492986801     -4.431704076807550      4.411916905261101
C       3.456308995916489     -6.367060693781427      3.543358021594109
C       5.818083440496567     -2.706062826197199      5.257576161242547
O       3.732018148138168     -4.406434568445734      5.377523594714226
O       5.476458226873520     -3.555113348047785      4.144708805895867
O       4.443613683416489     -5.321831735651545      3.397697621203484
H       3.801409398748520     -7.097335371058039      4.287084751940789
H       2.498480474187973     -5.936287435572199      3.835954838610711
H       3.404251729681137     -6.836366209070734      2.558939152575554
H       6.560127889349106     -1.998014959375910      4.867912464953484
H       4.932476674749497     -2.177198919336847      5.635061436511101
H       6.257706319524887     -3.328974279444269      6.047926121569695
C       1.212164556219223     -3.505988630335382      2.610584431506219
C       2.155337011053208     -3.703090223352961      0.464272671557488
C       0.373842870428208     -3.493717702906183      4.821182423449578
O       1.400082265569809     -2.290225538294367      2.621742421008172
O       0.676169072820786     -4.223650487940363      3.599338703967156
O       1.529291784002426     -4.336043867151789      1.610318356371941
H       1.468969976141098     -2.963807615320734      0.039600544787469
H       3.107065831853989     -3.232204946558527      0.748736554003777
H       2.337721502020004     -4.516682180445246     -0.240566081189094
H       1.301186238958481     -3.086937459986261      5.239015751696648
H      -0.332303369806167     -2.684606107752375      4.605146580554070
H      -0.085942590997574     -4.236073049585871      5.479534321642937
C       4.481878911687973      1.281414476354071      0.972488575793328
C       4.699141179754379     -0.815478834192804      2.015862637377801
C       4.183674489690903      3.456962076146551      0.146659069872918
O       4.089693700506333      0.782174554784246     -0.065234011792121
O       4.604216252996567      2.597433534581610      1.233866864062371
O       4.865639363958481      0.620554414708563      2.087865048266472
H       5.238194143011215     -1.225308927576593      1.156303578234734
H       5.104817067815903     -1.212045225184015      2.951687031603875
H       3.631445562078598     -1.059346708338312      1.941387348986687
H       4.379526769353989      4.474753824193426      0.494611912585320
H       4.735884343816879      3.226083246190496     -0.772818392895637
H       3.116144811346176      3.309621301610418     -0.031550234936653
C       3.323012029363754      3.194407907445379     -3.587665385388313
C       1.121685659124497      3.119437662084051     -2.669145411633430
C       5.597353612615708      3.402881113011786     -4.247653788708625
O       3.073860799505356      2.398082223851629     -4.482716387890754
O       4.521704351141098      3.771748987157293     -3.343441790722785
O       2.472500478460434      3.640422311742254     -2.643349475048957
H       1.075068151189926      2.225078073461004     -3.302647418164192
H       0.865093862249497      2.866891351659246     -1.633695429943977
H       0.455129300787094      3.899493661839911     -3.060177630566535
H       5.394282018377426      3.811116662938543     -5.240207499646125
H       6.498882924749497      3.853641000707098     -3.822550601147590
H       5.701048528387192      2.311731782872625     -4.287165469311653
C      -5.146460855768082      1.622809854466864      3.800983601428094
C      -7.076329553888199      2.998035875279852      3.684667759753289
C      -3.121009195611832      0.397205797154852      3.772491627551140
O      -5.288276041314957      1.409070459325262      5.016822987414422
O      -4.134221399591324      1.161495653111883      3.066814595080437
O      -5.956665361688492      2.328646150548407      3.023765736437859
H      -7.590790594385025      3.562634912450262      2.904598408557000
H      -7.758907640741226      2.250346628148504      4.103008442736687
H      -6.705499971673843      3.677293268163153      4.465213948107781
H      -2.650083864496109      1.020586458165594      4.530262165881219
H      -3.574483240411636     -0.488428625147394      4.233114415026726
H      -2.401143396661636      0.098810640294500      3.008695774890008
C       4.773699437811020     -5.385491880457453     -3.685611552380500
C       4.136892949773911     -3.922085317652277     -5.419757670544563
C       5.370218908025864     -7.021773370783380     -2.088195628308235
O       5.776743566228989     -4.722299131434015     -3.426110095166145
O       4.441084539129379     -6.536436590235285     -3.097941226147590
O       3.836847936346176     -5.073510679285578     -4.582071131848274
H       4.402010595037583     -3.050004514734797     -4.806403941296516
H       4.956522618963364     -4.187057050745539     -6.096034831189094
H       3.229138051702622     -3.745884450953058     -6.000156706952033
H       6.389801656438950     -7.071620496790461     -2.499775714062629
H       5.367161428167465     -6.386120828669123     -1.197491473339973
H       5.006455098821762     -8.027059587519220     -1.855887240551887
C       6.093403493597153     -0.057187589685968     -6.460889643811164
C       7.877592717840317     -1.478623899500422     -5.720027274273812
C       4.592495595647934      1.572885004002996     -7.386941260479865
O       5.204277669622543     -0.759761365931086     -6.024120635174689
O       5.949198400213364      1.094474283177801     -7.151387042187629
O       7.431179677679184     -0.257726224939875     -6.377398318432746
H       7.205799733831528     -1.712559255640558     -4.889745539807258
H       7.903288518621567     -2.292240652124933     -6.447491473339973
H       8.878714238836411     -1.259877714197687     -5.342126673840461
H       4.085903798772934      0.905382600743719     -8.095598048352180
H       4.054766332342270      1.604238954503485     -6.440248793744026
H       4.713867818548325      2.579378572423407     -7.801175421856819
C      -4.118708933160660      3.586881128270575      0.793705159045281
C      -6.105514848993179      3.843825784642645     -0.429182833813606
C      -2.072256410882828      3.668921915013739      1.949674778796258
O      -3.699363077447769      2.731874910314032      0.024865322924676
O      -3.448619211480972      4.075406518895575      1.845651799059929
O      -5.309037531183121      4.183751550633856      0.730697804308953
H      -6.240452135370132      2.760916200597235     -0.485595530651985
H      -7.063127840326187      4.346442666966864     -0.267360514782844
H      -5.599750841424820      4.240001169164129     -1.318739718579231
H      -1.475695932672378      4.301969018895575      1.279389553881707
H      -1.778254831598160      3.829396692235418      2.994798832751336
H      -1.953832948968765      2.611654725987860      1.676201039172234
C      -3.805837000177261     -3.187880071680597      1.546342068530144
C      -5.611266458795425     -1.776486906092218      2.162383252001824
C      -2.021865213678238     -4.673838171045832      1.139345341540398
O      -4.143650377557632     -3.191300901453547      0.364829235888543
O      -2.783297861383316     -3.873111280481867      2.070379429675164
O      -4.411032999322769     -2.519269498865656      2.535383396960320
H      -5.863176668451187     -1.190871748011164      3.058738880969109
H      -5.416332567499039     -1.114708456080011      1.296261006213250
H      -6.422746027276871     -2.486238988916925      1.943374806262078
H      -1.604651773736832     -4.016317876856379      0.366077595568719
H      -1.224896753595230     -5.103197130243830      1.749143772936883
H      -2.625865305230972     -5.472652467768244      0.688741856432976
C       6.226711904241684      6.737201181371161      7.716074162341179
C       6.758663808538559      7.860028711278387      7.153530293322625
C       5.605822240545395      5.458589044530340      5.685215168810906
O       6.771509801580551      8.259683099706121      5.899229222155633
O       5.514416372015122      5.696221795995184      7.123434239245476
O       4.845261251165512      4.525180307347723      5.371015721179070
H       6.311159764959458      6.586940256078192      8.792211705065789
H       7.241715108587387      8.518247095067450      7.907621556140008
P      -0.627224291131851     -0.268818410913996     -0.334096736096321
F      -0.646126116083023     -0.441437276880793      1.342253857470574
F      -2.279421175287125     -0.230735334436945     -0.284368342541633
F      -0.692371691034195     -1.900053533594660     -0.459339923047004
F      -0.597636545465347      1.346267190892645     -0.148578471325813
F      -0.648191774652359     -0.117400678675226     -1.949568576001106
F       0.994675313665512     -0.333274396936945     -0.305432147168098
